-------------------------------------------------------
          Amber 22 SANDER                              2022
          -------------------------------------------------------

  [-O]verwriting output

File Assignments:

 Here is the input file:

MM NPT
&cntrl
imin=0, irest=1,
ntx=5,
nstlim=300000,
dt=0.002,
ntf=2,
ntc=2,
temp0=300,
ntpr=1000,
ntwx=1000,
cut=8.0,
ntb=2,
ntp=1,
taup=1,
pres0 = 1,
ntt=3,
gamma_ln=2.0,
ig=-1,
/

--------------------------------------------------------------------------------
   1.  RESOURCE   USE:
--------------------------------------------------------------------------------

 getting box info from netcdf restart file
 NATOM  =   10953 NTYPES =       8 NBONH =    5469 MBONA  =    3675
 NTHETH =   10938 MTHETA =    1890 NPHIH =    5547 MPHIA  =     144
 NHPARM =       0 NPARM  =       0 NNB   =   29423 NRES   =    1821
 NBONA  =    3675 NTHETA =    1890 NPHIA =     144 NUMBND =      26
 NUMANG =      66 NPTRA  =       6 NATYP =      16 NPHB   =       0
 IFBOX  =       1 NMXRS  =      20 IFCAP =       0 NEXTRA =       0
 NCOPY  =       0

     BOX TYPE: RECTILINEAR
Note: ig = -1. Setting random seed to   464466 based on wallclock time in microseconds.

--------------------------------------------------------------------------------
   2.  CONTROL  DATA  FOR  THE  RUN
--------------------------------------------------------------------------------

default_name

General flags:
     imin    =       0, nmropt  =       0

Nature and format of input:
     ntx     =       5, irest   =       1, ntrx    =       1

Nature and format of output:
     ntxo    =       2, ntpr    =    1000, ntrx    =       1, ntwr    =  300000
     iwrap   =       0, ntwx    =    1000, ntwv    =       0, ntwe    =       0
     ioutfm  =       1, ntwprt  =       0, idecomp =       0, rbornstat=      0

Potential function:
     ntf     =       2, ntb     =       2, igb     =       0, nsnb    =      25
     ipol    =       0, gbsa    =       0, iesp    =       0
     dielc   =   1.00000, cut     =   8.00000, intdiel =   1.00000

Frozen or restrained atoms:
     ibelly  =       0, ntr     =       0

Molecular dynamics:
     nstlim  =    300000, nscm    =      1000, nrespa  =         1
     t       =   0.00000, dt      =   0.00200, vlimit  =  20.00000

Langevin dynamics temperature regulation:
     ig      =  464466
     temp0   = 300.00000, tempi   =   0.00000, gamma_ln=   2.00000

Pressure regulation:
     ntp     =       1
     pres0   =   1.00000, comp    =  44.60000, taup    =   1.00000

SHAKE:
     ntc     =       2, jfastw  =       0
     tol     =   0.00001

Ewald parameters:
     verbose =       0, ew_type =       0, nbflag  =       1, use_pme =       1
     vdwmeth =       1, eedmeth =       1, netfrc  =       1
     Box X =   56.000   Box Y =   56.000   Box Z =   56.000
     Alpha =   90.000   Beta  =   90.000   Gamma =   90.000
     NFFT1 =   60       NFFT2 =   60       NFFT3 =   60
     Cutoff=    8.000   Tol   =0.100E-04
     Ewald Coefficient =  0.34864
     Interpolation order =    4

--------------------------------------------------------------------------------
   3.  ATOMIC COORDINATES AND VELOCITIES
--------------------------------------------------------------------------------

default_name
 begin time read from input coords =    20.000 ps

 Number of triangulated 3-point waters found:        0

     Sum of charges from parm topology file =   0.01815169
     Assuming uniform neutralizing plasma

--------------------------------------------------------------------------------
   4.  RESULTS
 NSTEP =     1000   TIME(PS) =      22.000  TEMP(K) =   302.41  PRESS =  -155.9
 Etot   =    -26273.5513  EKtot   =      8229.8829  EPtot      =    -34503.4343
 BOND   =      1122.6809  ANGLE   =      4139.8295  DIHED      =        21.0944
 1-4 NB =       -80.8869  1-4 EEL =    -27035.5086  VDWAALS    =     -6297.1880
 EELEC  =     -6373.4556  EHBOND  =         0.0000  RESTRAINT  =         0.0000
 EKCMT  =      1643.6473  VIRIAL  =      2229.1296  VOLUME     =    173923.9273
                                                    Density    =         0.7171
 Ewald error estimate:   0.6106E-03
 ------------------------------------------------------------------------------

      A V E R A G E S   O V E R  300000 S T E P S

 NSTEP =   300000   TIME(PS) =     620.000  TEMP(K) =   299.96  PRESS =     0.1
 Etot   =    -26453.2407  EKtot   =      8163.1992  EPtot      =    -34616.4399
 BOND   =      1199.3094  ANGLE   =      4088.4816  DIHED      =        15.5742
 1-4 NB =       -83.8271  1-4 EEL =    -27023.7467  VDWAALS    =     -6377.5282
 EELEC  =     -6434.7030  EHBOND  =         0.0000  RESTRAINT  =         0.0000
 EKCMT  =      1626.5520  VIRIAL  =      1626.1516  VOLUME     =    171556.1728
                                                    Density    =         0.7270
 Ewald error estimate:   0.4878E-03
 ------------------------------------------------------------------------------

      R M S  F L U C T U A T I O N S

 NSTEP =   300000   TIME(PS) =     620.000  TEMP(K) =     2.56  PRESS =    89.7
 Etot   =       103.3556  EKtot   =        69.7178  EPtot      =        74.2779
 BOND   =        28.0270  ANGLE   =        49.6548  DIHED      =         3.0906
 1-4 NB =         1.3360  1-4 EEL =         9.6971  VDWAALS    =        35.3051
 EELEC  =        32.8390  EHBOND  =         0.0000  RESTRAINT  =         0.0000
 EKCMT  =        30.9362  VIRIAL  =       332.8679  VOLUME     =       472.9843
                                                    Density    =         0.0020
 Ewald error estimate:   0.1404E-03
 ------------------------------------------------------------------------------
